/*--------------------------------*- C++ -*----------------------------------*\
| =========                 |                                                 |
| \\      /  F ield         | OpenFOAM: The Open Source CFD Toolbox           |
|  \\    /   O peration     | Version:  v2012                                 |
|   \\  /    A nd           | Website:  www.openfoam.com                      |
|    \\/     M anipulation  |                                                 |
\*---------------------------------------------------------------------------*/
FoamFile
{
    version     2.0;
    format      ascii;
    class       polyBoundaryMesh;
    location    "constant/polyMesh";
    object      boundary;
}
// * * * * * * * * * * * * * * * * * * * * * * * * * * * * * * * * * * * * * //

5
(
    inlet
    {
        type            patch;
        nFaces          90;
        startFace       107310;
    }
    front
    {
        type            wedge;
        inGroups        1(wedge);
        nFaces          54000;
        startFace       107400;
    }
    back
    {
        type            wedge;
        inGroups        1(wedge);
        nFaces          54000;
        startFace       161400;
    }
    obstacle
    {
        type            wall;
        inGroups        1(wall);
        nFaces          600;
        startFace       215400;
    }
    atmosphere
    {
        type            patch;
        nFaces          690;
        startFace       216000;
    }
)

// ************************************************************************* //
