/*--------------------------------*- C++ -*----------------------------------*\
| =========                 |                                                 |
| \\      /  F ield         | OpenFOAM: The Open Source CFD Toolbox           |
|  \\    /   O peration     | Version:  v1806                                 |
|   \\  /    A nd           | Web:      www.OpenFOAM.com                      |
|    \\/     M anipulation  |                                                 |
\*---------------------------------------------------------------------------*/
FoamFile
{
    version     2.0;
    format      ascii;
    class       dictionary;
    object      blockMeshDict;
}
// * * * * * * * * * * * * * * * * * * * * * * * * * * * * * * * * * * * * * //

backgroundMesh
{
    length  7.6;
    rA     2; // radius of inlet patch
    rAA    0.375;
    rB       4; // outer radius
    lengthCells 600;
    rAcells 80;
    rBcells 10;
}

scale   1;

vertices
(
    (                      0 $:backgroundMesh.rAA -1)
    ($:backgroundMesh.length $:backgroundMesh.rAA -1)
    (                      0 $:backgroundMesh.rA -1)
    ($:backgroundMesh.length $:backgroundMesh.rA -1)
    (                      0 $:backgroundMesh.rB -1)
    ($:backgroundMesh.length $:backgroundMesh.rB -1)

    (                      0 $:backgroundMesh.rAA  0)
    ($:backgroundMesh.length $:backgroundMesh.rAA  0)
    (                      0 $:backgroundMesh.rA  0)
    ($:backgroundMesh.length $:backgroundMesh.rA  0)
    (                      0 $:backgroundMesh.rB  0)
    ($:backgroundMesh.length $:backgroundMesh.rB  0)
);

blocks
(
    hex (0 1 3 2 6 7 9 8)
    ($:backgroundMesh.lengthCells $:backgroundMesh.rAcells 1)
    simpleGrading (((0.5 0.5 0.001)(0.5 0.5 1000)) 50000 1)

    hex (2 3 5 4 8 9 11 10)
    ($:backgroundMesh.lengthCells $:backgroundMesh.rBcells 1)
    simpleGrading (((0.5 0.5 0.001)(0.5 0.5 1000)) 1 1)
);

edges
(
        polyLine 0 1
        (
(3.05656329990000	0.37499	            -1)
(3.10336251259000	0.376406192800000	-1)
(3.14777560979000	0.379989892200000	-1)
(3.18992427997000	0.385446697500000	-1)
(3.22992396988000	0.392510801600000	-1)
(3.26788425893000	0.400953590900000	-1)
(3.30390909760000	0.410577595200000	-1)
(3.33809719680000	0.420466899900000	-1)
(3.37054219540000	0.428859502100000	-1)
(3.40133300130000	0.436053812500000	-1)
(3.43055389520000	0.442198395700000	-1)
(3.45828489660000	0.447423309100000	-1)
(3.48460210560000	0.451841712000000	-1)
(3.50957749490000	0.455553293200000	-1)
(3.53327949050000	0.458645403400000	-1)
(3.55577300190000	0.461194992100000	-1)
(3.57711969020000	0.463270008600000	-1)
(3.59737799760000	0.464930295900000	-1)
(3.61660338640000	0.466228604300000	-1)
(3.63484860660000	0.467211693500000	-1)
(3.65216360690000	0.467920899400000	-1)
(3.66859571340000	0.468392700000000	-1)
(3.68418998720000	0.468659490300000	-1)
(3.69898931380000	0.468749612600000	-1)
(3.71303398610000	0.468688488000000	-1)
(3.72636259790000	0.468498289600000	-1)
(3.73901171680000	0.468198686800000	-1)
(3.75101579430000	0.467806994900000	-1)
(3.76240797040000	0.467338591800000	-1)
(3.77321918010000	0.466806888600000	-1)
(3.78347928520000	0.466223597500000	-1)
(3.79321618080000	0.465599089900000	-1)
(3.80245668890000	0.464942604300000	-1)
(3.81122608180000	0.464261800100000	-1)
(3.81954832080000	0.463563799900000	-1)
(3.82744617460000	0.462854296000000	-1)
(3.83494151830000	0.462138801800000	-1)
(3.84205461740000	0.461421489700000	-1)
(3.84880502220000	0.460706412800000	-1)
(3.85521132950000	0.459996610900000	-1)
(3.86129088400000	0.459295094000000	-1)
(3.86706061360000	0.458604008000000	-1)
(3.87253607510000	0.457925289900000	-1)
(3.87773240800000	0.457260698100000	-1)
(3.88266379830000	0.456611394900000	-1)
(3.88734377620000	0.455978512800000	-1)
(3.89178509710000	0.455362796800000	-1)
(3.89599998000000	0.454764902600000	-1)
(3.89999998810000	0.454185098400000	-1)
(3.90399999620000	0.453593403100000	-1)
(3.90800000430000	0.452989786900000	-1)
(3.91213841440000	0.452352613200000	-1)
(3.91641987560000	0.451679796000000	-1)
(3.92084957360000	0.450969308600000	-1)
(3.92543251510000	0.450218588100000	-1)
(3.93017400500000	0.449425309900000	-1)
(3.93507952690000	0.448586702300000	-1)
(3.94015468360000	0.447699785200000	-1)
(3.94540549520000	0.446761697500000	-1)
(3.95083798170000	0.445769190800000	-1)
(3.95645840170000	0.444718599300000	-1)
(3.96227319240000	0.443606197800000	-1)
(3.96828920840000	0.442428201400000	-1)
(3.97451342340000	0.441180110000000	-1)
(3.98095281120000	0.439857512700000	-1)
(3.98761512040000	0.438455492300000	-1)
(3.99450780150000	0.436968714000000	-1)
(4.00163902040000	0.435391694300000	-1)
(4.00901688340000	0.433718413100000	-1)
(4.01664997340000	0.431942403300000	-1)
(4.02454717160000	0.430056810400000	-1)
(4.03271759750000	0.428054094300000	-1)
(4.04117072820000	0.425926506500000	-1)
(4.04991627930000	0.423665404300000	-1)
(4.05896432400000	0.421261698000000	-1)
(4.06832541230000	0.418705403800000	-1)
(4.07801039220000	0.415986090900000	-1)
(4.08803040980000	0.413092285400000	-1)
(4.09839708810000	0.410011798100000	-1)
(4.10912240740000	0.406731307500000	-1)
(4.12021882530000	0.403236597800000	-1)
(4.13169897790000	0.399512499600000	-1)
(4.14357639550000	0.395542204400000	-1)
(4.15586478710000	0.391307890400000	-1)
(4.16857821940000	0.386790096800000	-1)
(4.18173147440000	0.382197409900000	-1)
(4.19533981080000	0.378575593200000	-1)
(4.20941896400000	0.376174807500000	-1)
        )

        polyLine 6 7
        (
(3.05656329990000	0.37499	            0)
(3.10336251259000	0.376406192800000	0)
(3.14777560979000	0.379989892200000	0)
(3.18992427997000	0.385446697500000	0)
(3.22992396988000	0.392510801600000	0)
(3.26788425893000	0.400953590900000	0)
(3.30390909760000	0.410577595200000	0)
(3.33809719680000	0.420466899900000	0)
(3.37054219540000	0.428859502100000	0)
(3.40133300130000	0.436053812500000	0)
(3.43055389520000	0.442198395700000	0)
(3.45828489660000	0.447423309100000	0)
(3.48460210560000	0.451841712000000	0)
(3.50957749490000	0.455553293200000	0)
(3.53327949050000	0.458645403400000	0)
(3.55577300190000	0.461194992100000	0)
(3.57711969020000	0.463270008600000	0)
(3.59737799760000	0.464930295900000	0)
(3.61660338640000	0.466228604300000	0)
(3.63484860660000	0.467211693500000	0)
(3.65216360690000	0.467920899400000	0)
(3.66859571340000	0.468392700000000	0)
(3.68418998720000	0.468659490300000	0)
(3.69898931380000	0.468749612600000	0)
(3.71303398610000	0.468688488000000	0)
(3.72636259790000	0.468498289600000	0)
(3.73901171680000	0.468198686800000	0)
(3.75101579430000	0.467806994900000	0)
(3.76240797040000	0.467338591800000	0)
(3.77321918010000	0.466806888600000	0)
(3.78347928520000	0.466223597500000	0)
(3.79321618080000	0.465599089900000	0)
(3.80245668890000	0.464942604300000	0)
(3.81122608180000	0.464261800100000	0)
(3.81954832080000	0.463563799900000	0)
(3.82744617460000	0.462854296000000	0)
(3.83494151830000	0.462138801800000	0)
(3.84205461740000	0.461421489700000	0)
(3.84880502220000	0.460706412800000	0)
(3.85521132950000	0.459996610900000	0)
(3.86129088400000	0.459295094000000	0)
(3.86706061360000	0.458604008000000	0)
(3.87253607510000	0.457925289900000	0)
(3.87773240800000	0.457260698100000	0)
(3.88266379830000	0.456611394900000	0)
(3.88734377620000	0.455978512800000	0)
(3.89178509710000	0.455362796800000	0)
(3.89599998000000	0.454764902600000	0)
(3.89999998810000	0.454185098400000	0)
(3.90399999620000	0.453593403100000	0)
(3.90800000430000	0.452989786900000	0)
(3.91213841440000	0.452352613200000	0)
(3.91641987560000	0.451679796000000	0)
(3.92084957360000	0.450969308600000	0)
(3.92543251510000	0.450218588100000	0)
(3.93017400500000	0.449425309900000	0)
(3.93507952690000	0.448586702300000	0)
(3.94015468360000	0.447699785200000	0)
(3.94540549520000	0.446761697500000	0)
(3.95083798170000	0.445769190800000	0)
(3.95645840170000	0.444718599300000	0)
(3.96227319240000	0.443606197800000	0)
(3.96828920840000	0.442428201400000	0)
(3.97451342340000	0.441180110000000	0)
(3.98095281120000	0.439857512700000	0)
(3.98761512040000	0.438455492300000	0)
(3.99450780150000	0.436968714000000	0)
(4.00163902040000	0.435391694300000	0)
(4.00901688340000	0.433718413100000	0)
(4.01664997340000	0.431942403300000	0)
(4.02454717160000	0.430056810400000	0)
(4.03271759750000	0.428054094300000	0)
(4.04117072820000	0.425926506500000	0)
(4.04991627930000	0.423665404300000	0)
(4.05896432400000	0.421261698000000	0)
(4.06832541230000	0.418705403800000	0)
(4.07801039220000	0.415986090900000	0)
(4.08803040980000	0.413092285400000	0)
(4.09839708810000	0.410011798100000	0)
(4.10912240740000	0.406731307500000	0)
(4.12021882530000	0.403236597800000	0)
(4.13169897790000	0.399512499600000	0)
(4.14357639550000	0.395542204400000	0)
(4.15586478710000	0.391307890400000	0)
(4.16857821940000	0.386790096800000	0)
(4.18173147440000	0.382197409900000	0)
(4.19533981080000	0.378575593200000	0)
(4.20941896400000	0.376174807500000	0)
        )

);

boundary
(
    inlet
    {
        type patch;
        faces
        (
            (0 6 8 2)
	    (2 8 10  4)
        );
    }

    front
    {
        type symmetry;
        faces
        (
            (6 7  9 8)
            (8 9 11 10)
        );
    }

    back
    {
        type symmetry;
        faces
        (
            (0 1 3 2)
            (2 3 5 4)
        );
    }
   
    obstacle
    {
	type wall;
        faces
        (
	    (0 1 7 6)
	
        );

    }

    atmosphere
    {
        type patch;
        faces
        (
            (4 5 11 10)
            (5 3  9 11)
            (3 1  7  9)
        );
    }
);

mergePatchPairs
(
);

// ************************************************************************* //
