/*--------------------------------*- C++ -*----------------------------------*\
| =========                 |                                                 |
| \\      /  F ield         | OpenFOAM: The Open Source CFD Toolbox           |
|  \\    /   O peration     | Version:  v2112                                 |
|   \\  /    A nd           | Website:  www.openfoam.com                      |
|    \\/     M anipulation  |                                                 |
\*---------------------------------------------------------------------------*/
FoamFile
{
    version     2.0;
    format      ascii;
    class       dictionary;
    object      controlDict;
}
// * * * * * * * * * * * * * * * * * * * * * * * * * * * * * * * * * * * * * //

libs (
   "libcompressibleTurbulenceModels.so"
   "libfindroot.so"
   "libhisaFiniteVolume.so"
   "libvelocityOutletNSCBCx.so"
   "libpressureOutletNSCBC.so"
   "libtemperatureOutletNSCBC.so"
);

application     hisa;

startFrom       startTime;

startTime       0;

stopAt          endTime;

endTime         50000;

deltaT          1;

writeControl    adjustableRunTime;

writeInterval   100;

purgeWrite      3;

writeFormat     ascii;

writePrecision  12;

writeCompression off;

timeFormat      general;

timePrecision   8;

runTimeModifiable true;

maxCo           1.0e20;

maxDeltaT       1e-5;

functions
{
    pressure
    {
        type            pressure;
        libs            (fieldFunctionObjects);
        writeControl    writeTime;
        result          Cp;
        mode            staticCoeff;
        rho             rhoInf;
        rhoInf          0.7661;
        U               UInf;
        UInf            (303.8166 0 0);
        pInf            65969;
    }

    forceCoeffs
    {
        type            forceCoeffs;
        libs            (forces);
        writeControl    writeTime;
        rho             rhoInf;
        rhoInf          1;
        liftDir         (0 1 0);
        dragDir         (1 0 0);
        CofR            (0.75 0 0); // bump midpoint
        pitchAxis       (0 0 1);
        magUInf         303.8166;
        lRef            0.2032; // length of bump
        Aref            0.1209; // mesh span = 0.0013, bump height = 0.093; 0.0013*0093= 0.1209
        patches         (bump);
    }

    wallShearStress
    {
        type            wallShearStress;
        libs            (fieldFunctionObjects);
        writeControl    writeTime;
        patches         (bump);
    }

    yPlus
    {
        type            yPlus;
        libs            (fieldFunctionObjects);
        writeControl    writeTime;
        patches         (bump);
    }

    cellCentres
    {
        type            writeCellCentres;
        libs            (fieldFunctionObjects);
        writeControl    writeTime;
    }

    residuals
    {
        type            solverInfo;
        libs            (utilityFunctionObjects);
        fields          (".*");
    }
}

optimisationSwitches
{
     fileHandler collated;
}

// ************************************************************************* //
